LTspice 24.0.12 for Windows
Circuit: * D:\lab sch\convertor2.asc
Start Time: Thu Mar  6 18:35:19 2025
solver = Normal
Maximum thread count: 2
tnom = 27
temp = 27
method = modified trap
Direct Newton iteration for .op point succeeded.
Total elapsed time: 39.442 seconds.

